/*--------------------------------*- C++ -*----------------------------------*\
| =========                 |                                                 |
| \\      /  F ield         | OpenFOAM: The Open Source CFD Toolbox           |
|  \\    /   O peration     | Version:  2.3.0                                 |
|   \\  /    A nd           | Web:      www.OpenFOAM.org                      |
|    \\/     M anipulation  |                                                 |
\*---------------------------------------------------------------------------*/
FoamFile
{
    version     2.0;
    format      ascii;
    class       dictionary;
    object      blockMeshDict;
}
// * * * * * * * * * * * * * * * * * * * * * * * * * * * * * * * * * * * * * //

convertToMeters 1;

vertices
(
    (-0.25 0 -0.001)
    (-0.0015 0 -0.001)
    (0.0015 0 -0.001)
    (0.25 0 -0.001)
    (-0.25 0.450 -0.001)
    (-0.0015 0.450 -0.001)
    (0.0015 0.450 -0.001)
    (0.25 0.450 -0.001)
    (-0.25 0 0.001)
    (-0.0015 0 0.001)
    (0.0015 0 0.001)
    (0.25 0 0.001)
    (-0.25 0.450 0.001)
    (-0.0015 0.450 0.001)
    (0.0015 0.450 0.001)
    (0.25 0.450 0.001)
);

blocks
(
    hex (0 1 5 4 8 9 13 12) (150 250 1) simpleGrading (0.5 2 1)
    hex (1 2 6 5 9 10 14 13) (4 250 1) simpleGrading (1 2 1)
    hex (2 3 7 6 10 11 15 14) (150 250 1) simplegrading (2 2 1)
);

edges
(
);

patches
(
    patch inlet
    (
        (1 2 10 9)
    )
    patch outlet
    (
        (5 4 12 13)
	(13 14 6 5)
	(14 15 7 6)
    )
    wall walls
    (
     (0 1 9 8)
     (10 2 3 11)
     )
    patch sides
    (
	(3 7 15 11)
	(12 4 0 8)
    )
    empty frontAndBackPlanes
    (
        (0 4 5 1)
        (1 5 6 2)
	(2 6 7 3)
	(8 9 13 12)
	(9 10 14 13)
	(10 11 15 14)
    )
);

mergePatchPairs
(
);

// ************************************************************************* //
