/*--------------------------------*- C++ -*----------------------------------*\
  =========                 |
  \\      /  F ield         | OpenFOAM: The Open Source CFD Toolbox
   \\    /   O peration     | Website:  https://openfoam.org
    \\  /    A nd           | Version:  6
     \\/     M anipulation  |
\*---------------------------------------------------------------------------*/
FoamFile
{
    version     2.0;
    format      ascii;
    class       dictionary;
    location    "constant";
    object      phaseProperties;
}
// * * * * * * * * * * * * * * * * * * * * * * * * * * * * * * * * * * * * * //

phases (particles air);

particles
{
    residualAlpha   1e-6;

    diameterModel constant;
    constantCoeffs
     {
        d               0.5e-3;
    }
  alphaMax        0.6;
    residualAlpha   1e-6;
}

air
{
    residualAlpha   0;

    diameterModel constant;
    constantCoeffs
    {
        d               1;
    }

    residualAlpha   0;
}

blending
{
    default
    {
        type            none;
        continuousPhase air;
    }
}

sigma
(
    (particles and air) 0
);

aspectRatio
(
);

drag
(
    (particles in air)
    {
        type            Gibilaro;
        residualRe      1e-3;
        swarmCorrection
        {
            type        none;
        }
    }
);

virtualMass
(
	(particles in air)
    {
        type            constantCoefficient;
        Cvm             0.5;
    }
);

heatTransfer
(
    (particles in air)
    {
        type            RanzMarshall;
       
    }
);

phaseTransfer
(
);

lift
(
(particles in air)
 {
   type        constantCoefficient;
   Cl         0.5;
 }
);

wallLubrication
(
);

turbulentDispersion
(
);

// Minimum allowable pressure
pMin            10000;


// ************************************************************************* //
